src/applications/data_sets/raw/case2mod.raw
0  100.000
 0,    100.00, 23, 0, 0, 60.00       / February 17, 2014 16:14:23
 0,    100.00, 23, 0, 0, 60.00       / February 17, 2014 16:14:23
      1, 3,     0.000,     0.000,     0.000,     0.000,   1,1.00000,  0.00000,'bus-1       ',100.0000,   2
      5, 1,    90.000,     0.000,     0.000,     0.000,   1,0.97547, -4.01726,'bus-5       ',100.0000,   2
0
    1,'1 ',  71.9547,    24.0689,   53.400,   -20.400, 1.0000,     0,   100.000,   0.10000,   1.00000,   0.00000,   0.00000,   1.00000,1,  100.0,     0.000,     0.000
0 / END OF GENERATOR DATA, BEGIN BRANCH DATA
      1,     -5,'A ',  0.00000,  0.05760,  0.00000,   0.00,   0.00,   0.00,1.00000,000.000, 0.00000, 0.00000, 0.00000, 0.00000, 1
0 / END OF BRANCH DATA, BEGIN TRANSFORMER ADJUSTMENT DATA
0 / END OF TRANSFORMER ADJUSTMENT DATA, BEGIN AREA DATA
   1,      0,     0.0,  3.000,'            '
0 / END OF AREA DATA, BEGIN TWO-TERMINAL DC DATA
0 / END OF TWO-TERMINAL DC DATA, BEGIN SWITCHED SHUNT DATA
0 / END OF SWITCHED SHUNT DATA, BEGIN IMPEDANCE CORRECTION DATA
0 / END OF IMPEDANCE CORRECTION DATA, BEGIN MULTI-TERMINAL DC DATA
0 / END OF MULTI-TERMINAL DC DATA, BEGIN MULTI-SECTION LINE DATA
0 / END OF MULTI-SECTION LINE DATA, BEGIN ZONE DATA
    1,'ZONE_0      '
0 / END OF ZONE DATA, BEGIN INTER-AREA TRANSFER DATA
0 / END OF INTER-AREA TRANSFER DATA, BEGIN OWNER DATA
0 / END OF OWNER DATA, BEGIN FACTS DEVICE DATA
